
 OpenBabel07292514593D

 35 39  0  0  0  0  0  0  0  0999 V2000
   -2.4837   -0.4313   -0.2306 C   0  0  0  0  0  0  0  0  0  0  0  0
   -1.8186    0.9518   -0.0269 C   0  0  1  0  0  0  0  0  0  0  0  0
   -3.2979    2.0890   -0.0706 S   0  0  0  0  0  0  0  0  0  0  0  0
   -2.7453    3.4854   -1.4664 S   0  0  0  0  0  0  0  0  0  0  0  0
   -1.7607    4.8953   -0.3634 S   0  0  0  0  0  0  0  0  0  0  0  0
   -0.0455    3.9522    0.2297 S   0  0  0  0  0  0  0  0  0  0  0  0
   -0.5970    2.8312    1.8638 S   0  0  0  0  0  0  0  0  0  0  0  0
   -0.9397    1.0896    1.2549 C   0  0  2  0  0  0  0  0  0  0  0  0
    0.4079    0.2711    1.2968 C   0  0  2  0  0  0  0  0  0  0  0  0
    1.4697    0.5908    0.1861 C   0  0  1  0  0  0  0  0  0  0  0  0
    2.7408    1.7769    0.7988 S   0  0  0  0  0  0  0  0  0  0  0  0
    3.9479    2.0982   -0.8306 S   0  0  0  0  0  0  0  0  0  0  0  0
    5.5503    0.8643   -0.4964 S   0  0  0  0  0  0  0  0  0  0  0  0
    4.9056   -0.9909   -1.0656 S   0  0  0  0  0  0  0  0  0  0  0  0
    3.5019   -1.5015    0.3466 S   0  0  0  0  0  0  0  0  0  0  0  0
    1.9679   -0.7706   -0.3718 C   0  0  1  0  0  0  0  0  0  0  0  0
    0.8255   -1.7331   -0.0591 C   0  0  2  0  0  0  0  0  0  0  0  0
   -0.3709   -1.6494   -1.0143 C   0  0  0  0  0  0  0  0  0  0  0  0
   -1.6150   -1.6806   -0.1164 C   0  0  1  0  0  0  0  0  0  0  0  0
   -1.1088   -1.8825    1.3076 C   0  0  0  0  0  0  0  0  0  0  0  0
    0.2746   -1.2733    1.2881 C   0  0  2  0  0  0  0  0  0  0  0  0
   -3.3102   -0.5572    0.4845 H   0  0  0  0  0  0  0  0  0  0  0  0
   -2.9428   -0.4507   -1.2302 H   0  0  0  0  0  0  0  0  0  0  0  0
   -1.2110    1.1679   -0.9097 H   0  0  0  0  0  0  0  0  0  0  0  0
   -1.5477    0.7058    2.0838 H   0  0  0  0  0  0  0  0  0  0  0  0
    0.8535    0.4846    2.2810 H   0  0  0  0  0  0  0  0  0  0  0  0
    0.9603    1.1062   -0.6344 H   0  0  0  0  0  0  0  0  0  0  0  0
    2.1022   -0.7088   -1.4578 H   0  0  0  0  0  0  0  0  0  0  0  0
    1.1446   -2.7833   -0.0178 H   0  0  0  0  0  0  0  0  0  0  0  0
   -0.3385   -0.7702   -1.6648 H   0  0  0  0  0  0  0  0  0  0  0  0
   -0.3644   -2.5191   -1.6826 H   0  0  0  0  0  0  0  0  0  0  0  0
   -2.2427   -2.5377   -0.3928 H   0  0  0  0  0  0  0  0  0  0  0  0
   -1.0229   -2.9596    1.5044 H   0  0  0  0  0  0  0  0  0  0  0  0
   -1.7644   -1.4761    2.0823 H   0  0  0  0  0  0  0  0  0  0  0  0
    0.8746   -1.6843    2.1100 H   0  0  0  0  0  0  0  0  0  0  0  0
  1  2  1  0  0  0  0
  1 22  1  0  0  0  0
  1 23  1  0  0  0  0
  2  3  1  0  0  0  0
  2 24  1  6  0  0  0
  3  4  1  0  0  0  0
  4  5  1  0  0  0  0
  5  6  1  0  0  0  0
  6  7  1  0  0  0  0
  7  8  1  0  0  0  0
  8  9  1  0  0  0  0
  8  2  1  0  0  0  0
  8 25  1  1  0  0  0
  9 10  1  0  0  0  0
  9 26  1  1  0  0  0
 10 11  1  0  0  0  0
 10 27  1  6  0  0  0
 11 12  1  0  0  0  0
 12 13  1  0  0  0  0
 13 14  1  0  0  0  0
 14 15  1  0  0  0  0
 15 16  1  0  0  0  0
 16 17  1  0  0  0  0
 16 10  1  0  0  0  0
 16 28  1  6  0  0  0
 17 18  1  0  0  0  0
 17 29  1  1  0  0  0
 18 19  1  0  0  0  0
 18 30  1  0  0  0  0
 18 31  1  0  0  0  0
 19 20  1  0  0  0  0
 19  1  1  0  0  0  0
 19 32  1  6  0  0  0
 20 21  1  0  0  0  0
 20 33  1  0  0  0  0
 20 34  1  0  0  0  0
 21  9  1  0  0  0  0
 21 17  1  0  0  0  0
 21 35  1  1  0  0  0
M  END
